%NProcShared=8
%Mem=45GB
%chk=Pz-m1_opt_freq_Gas_M06_DGTZVP.chk
#P M06/DGTZVP nosymm Opt Test scf(maxcycle=1000) FREQ 

Pyrazinamide

0  1
6	1.467123	-1.022147	-0.580693
7	2.132087	-1.538671	0.496423
8	1.851035	-1.16517	-1.735551
6	0.200584	-0.235324	-0.266502
6	-0.846228	-0.807899	0.372297
7	0.172888	1.090815	-0.70919
7	-2.099506	-0.070277	0.650191
6	-0.998408	1.83637		-0.5052
6	-2.071717	1.31467		0.129108
1	1.822216	-1.424112	1.454526
1	2.97691		-2.087293	0.366786
1	-0.847496	-1.845737	0.725831
1	0.965057	1.489777	-1.220999
1	-2.907015	-0.586801	0.223785
1	-0.989245	2.872586	-0.887414
1	-2.993545	1.880757	0.302452
1	-2.262989	-0.047914	1.686748
