%NProcShared=8
%Mem=45GB
%chk=Pz-m1_opt_freq_Gas_B3LYP_6-31++Gd.chk
#P B3LYP/6-31++G(d) nosymm Opt Test scf(maxcycle=1000) FREQ 

Pyrazinamide

0  1
                6           0        1.193339   -1.368051   -0.042159
                7           0        2.420643   -0.831557   -0.141368
                8           0        0.964850   -2.580585    0.008213
                6           0        0.069662   -0.365438    0.005564
                6           0       -1.252926   -0.801704    0.113321
                7           0        0.378158    0.935147   -0.057305
                7           0       -2.274397    0.059026    0.158257
                6           0       -0.638611    1.794789   -0.012779
                6           0       -1.961820    1.355980    0.094714
                1           0        2.532299    0.171945   -0.177158
                1           0        3.230593   -1.431567   -0.179747
                1           0       -1.478111   -1.862394    0.163568
                1           0       -0.403254    2.854416   -0.062880
                1           0       -2.780426    2.069996    0.129753






